reduced_networks/ieee37/74pct/dss/Branches.dss
! Radial Kron-equivalent series elements
new Reactor.kr_2_10 phases=1 bus1=799.2 bus2=799r.2 rmatrix=[0.0009999999999999998] xmatrix=[1.77635683940025e-21]
new Reactor.kr_3_7 phases=3 bus1=709.1.2.3 bus2=703.1.2.3 rmatrix=[0.1959999491923328 | 0.07380299735709113 0.1973029801552408 | 0.06946966715493406 0.07380299735709003 0.1959999491923313] xmatrix=[0.1017121607090284 | 0.03198487760651232 0.09584852582233 | 0.02304548306831329 0.03198487760651431 0.1017121607090329]
new Reactor.kr_3_9 phases=3 bus1=709.1.2.3 bus2=734.1.2.3 rmatrix=[0.293999660911501 | 0.110704325072838 0.2959542102683332 | 0.1042043473499181 0.1107043250728375 0.2939996609115003] xmatrix=[0.1525684434121123 | 0.04797746545350278 0.1437730009813988 | 0.0345683729311569 0.04797746545350225 0.1525684434121121]
new Reactor.kr_5_6 phases=3 bus1=701.1.2.3 bus2=702.1.2.3 rmatrix=[0.08638181855999999 | 0.02961818207999998 0.08160000000000003 | 0.02243636351999999 0.02961818207999999 0.08638181856000002] xmatrix=[0.05405454528000003 | -0.005927272320000019 0.04869090912000002 | -0.01103636352000001 -0.005927272320000001 0.05405454527999999]
new Reactor.kr_5_10 phases=3 bus1=701.1.2.3 bus2=799r.1.2.3 rmatrix=[0.10252083395 | 0.02358049220000002 0.0927102266 | 0.01180776560000002 0.0235804922 0.10252083395] xmatrix=[0.0691297344 | -0.01289393945 0.06657196879999998 | -0.01461079495 -0.01289393945000001 0.06912973439999999]
new Reactor.kr_6_7 phases=3 bus1=702.1.2.3 bus2=703.1.2.3 rmatrix=[0.11877500052 | 0.04072500036000003 0.1122 | 0.03084999984000021 0.04072500035999994 0.1187750005200001] xmatrix=[0.07432499976000008 | -0.008149999439999875 0.06695000003999992 | -0.01517499983999993 -0.008149999440000008 0.07432499976000019]
new Reactor.kr_6_8 phases=3 bus1=702.1.2.3 bus2=720.1.2.3 rmatrix=[0.4115989269318532 | 0.1549856659671014 0.4143353026605978 | 0.1458857371702371 0.1549856659671018 0.4115989269318538] xmatrix=[0.2135962813502488 | 0.0671687908790343 0.2012826844795062 | 0.04839605972020954 0.06716879087903521 0.2135962813502507]
